/*--------------------------------*- C++ -*----------------------------------*\
| =========                 |                                                 |
| \\      /  F ield         | OpenFOAM: The Open Source CFD Toolbox           |
|  \\    /   O peration     | Version:  v13                                   |
|   \\  /    A nd           | Website:  www.openfoam.org                      |
|    \\/     M anipulation  |                                                 |
\*---------------------------------------------------------------------------*/
FoamFile
{
    version     2.0;
    format      ascii;
    class       dictionary;
    object      snappyHexMeshDict;
}
// * * * * * * * * * * * * * * * * * * * * * * * * * * * * * * * * * * * * * //

castellatedMesh true;
snap            true;
addLayers       false;

geometry
{
    ahmed_body_25deg.stl
    {
        type triSurfaceMesh;
        name ahmedBody;
        file "ahmed_body_25deg.stl"; // Explicitly point to file
    }
}

castellatedMeshControls
{
    maxLocalCells 1000000;
    maxGlobalCells 2000000;
    minRefinementCells 10;
    maxLoadUnbalance 0.10;
    nCellsBetweenLevels 3;

    features
    (
        {
            file "ahmed_body_25deg.eMesh";
            level 3;
        }
    );

    refinementSurfaces
    {
        ahmedBody
        {
            level (3 4);
        }
    }

    resolveFeatureAngle 30;

    refinementRegions
    {
        ahmedBody
        {
            mode distance;
            levels ((0.1 3) (0.5 2));
        }
    }

    // Point INSIDE the wind tunnel but OUTSIDE the car
    locationInMesh (0.5 0.5 0.5); 
    allowFreeStandingZoneFaces true;
}

snapControls
{
    nSmoothPatch 3;
    tolerance 2.0;
    nSolveIter 30;
    nRelaxIter 5;
    nFeatureSnapIter 10;
    implicitFeatureSnap false;
    explicitFeatureSnap true;
    multiRegionFeatureSnap false;
}

addLayersControls
{
    relativeSizes true;
    layers
    {
        ahmedBody
        {
            nSurfaceLayers 3;
        }
    }
    expansionRatio 1.1;
    finalLayerThickness 0.5;
    minThickness 0.1;
    nGrow 0;
    featureAngle 60;
    slipFeatureAngle 30;
    nRelaxIter 3;
    nSmoothSurfaceNormals 1;
    nSmoothNormals 3;
    nSmoothThickness 10;
    maxFaceThicknessRatio 0.5;
    maxThicknessToMedialRatio 0.3;
    minMedianAxisAngle 90;
    nBufferCellsNoExtrude 0;
    nLayerIter 50;
}

meshQualityControls
{
    maxNonOrtho 65;
    maxBoundarySkewness 20;
    maxInternalSkewness 4;
    maxConcave 80;
    minVol 1e-13;
    minTetQuality 1e-30;
    minArea -1;
    minTwist 0.02;
    minDeterminant 0.001;
    minFaceWeight 0.02;
    minVolRatio 0.01;
    minTriangleTwist -1;

    // Advanced error control
    nSmoothScale 4;
    errorReduction 0.75;
}

mergeTolerance 1e-6;

// ************************************************************************* //
