/*--------------------------------*- C++ -*----------------------------------*\
  =========                 |
  \\      /  F ield         | OpenFOAM: The Open Source CFD Toolbox
   \\    /   O peration     | Website:  https://openfoam.org
    \\  /    A nd           | Version:  13
     \\/     M anipulation  |
\*---------------------------------------------------------------------------*/
FoamFile
{
    version     2.0;
    format      ascii;
    class       dictionary;
    location    "constant/fluid";
    object      thermophysicalProperties;
}
// * * * * * * * * * * * * * * * * * * * * * * * * * * * * * * * * * * * * * //

thermoType
{
    type            heRhoThermo;
    mixture         pureMixture;
    transport       tabulated;
    thermo          hConst;
    equationOfState rhoConst;
    specie          specie;
    energy          sensibleEnthalpy;
}

mixture
{
    specie { molWeight 18.0; }
    thermodynamics { Cp 4180; Hf 0; }
    equationOfState { rho 1000; }
    transport
    {
        mu      table 
        (
            273  1.793e-3
            300  8.55e-4
            350  3.55e-4
            400  1.70e-4
            450  9.00e-5
            500  5.20e-5
        );
        kappa   table
        (
            273  0.561
            300  0.613
            350  0.668
            400  0.682
            450  0.668
            500  0.651
        );
    }
}

// ************************************************************************* //