/*--------------------------------*- C++ -*----------------------------------*\
  =========                 |
  \\      /  F ield         | OpenFOAM: The Open Source CFD Toolbox
   \\    /   O peration     | Website:  https://openfoam.org
    \\  /    A nd           | Version:  13
     \\/     M anipulation  |
\*---------------------------------------------------------------------------*/
FoamFile
{
    version     2.0;
    format      ascii;
    class       volScalarField;
    location    "0/fluid";
    object      k;
}
// * * * * * * * * * * * * * * * * * * * * * * * * * * * * * * * * * * * * * //

dimensions      [0 2 -2 0 0 0 0];

internalField   uniform 0.01; // Small initial turbulence

boundaryField
{
    inlet
    {
        type            fixedValue;
        value           uniform 0.01;
    }

    outlet
    {
        type            inletOutlet;
        inletValue      uniform 0.01;
        value           uniform 0.01;
    }

    // Wall Function for k
    fluid_to_solid
    {
        type            kqRWallFunction;
        value           uniform 0.01;
    }
}
// ************************************************************************* //
